/*--------------------------------*- C++ -*----------------------------------*\
| =========                 |                                                 |
| \\      /  F ield         | OpenFOAM: The Open Source CFD Toolbox           |
|  \\    /   O peration     | Version:  4.x                                   |
|   \\  /    A nd           | Web:      www.OpenFOAM.org                      |
|    \\/     M anipulation  |                                                 |
\*---------------------------------------------------------------------------*/
FoamFile
{
    version     2.0;
    format      ascii;
    class       dictionary;
    object      blockMeshDict;
}
// * * * * * * * * * * * * * * * * * * * * * * * * * * * * * * * * * * * * * //

convertToMeters 1;

vertices
(
    (-5.0  0.0 -0.1) //0
    (-0.5  0.0 -0.1) //1
    ( 0.0  0.5 -0.1)  //2
    ( 0.0  5.0 -0.1)  //3
    (-5.0  0.0  0.1)  //4//0
    (-0.5  0.0  0.1)  //5//1
    ( 0.0  0.5  0.1)  //6//2
    ( 0.0  5.0  0.1)   //7//3
);

blocks
(
    hex (0 1 2 3 4 5 6 7) (60 50 1) simpleGrading (0.5 1 1)
);

edges
(
	arc 1 2 (-0.35355 0.35355 -0.1)
	arc 5 6 (-0.35355 0.35355  0.1)

	arc 3 0 (-3.5355339059 3.5355339059 -0.1)
	arc 7 4 (-3.5355339059 3.5355339059  0.1)

	//arc 6 7 (-0.25 0.25  0.1)

);

boundary
(
    body
    {
        type patch;
        faces
        (
            (1 2 6 5)

        );
    }
    sym
    {
        type patch;
        faces
        (
            (0 1 5 4)
        );
    }
    inlet
    {
        type patch;
        faces
        (
            (0 4 7 3)
        );
    }
    outlet
    {
        type patch;
        faces
        (
            (2 3 7 6)
        );
    }
    empty
    {
        type empty;
        faces
        (
			(0 1 2 3)
			(4 5 6 7)
            //(0 1 5 4)
            //(5 6 7 4)
            //(3 7 6 2)
            //(0 3 2 1)
        );
    }
);

mergePatchPairs
(
);

// ************************************************************************* //
